LAMMPS (3 Mar 2020)
# Sample LAMMPS input script for thermal conductivity of solid Ar

units       real
variable    T equal 94.4
variable    V equal vol
variable    dt equal 2.0
variable    p equal 200     # correlation length
variable    s equal 10      # sample interval
variable    d equal $p*$s   # dump interval
variable    d equal 200*$s
variable    d equal 200*10

variable    dens equal 1.374 # density
variable    M_arg equal 39.948   # weight g/mol argon

# convert from LAMMPS real units to SI

variable    avgN equal 6.0221409e+23   # avogadro number
variable    kB equal 1.3806504e-23    # [J/K] Boltzmann
variable    kCal2J equal 4186.0/6.02214e23
variable    A2m equal 1.0e-10
variable    fs2s equal 1.0e-15
variable    convert equal 6.95101741241486e-21*6.95101741241486e-21/1e-15/1e-10

# setup problem
variable    repetitions equal 7 # number of blocks repetitions in each direction

variable sidel equal (39.948/6.0221409e+23*4/1.374)^0.333333*1e+8

dimension    3
boundary     p p p
lattice      fcc 5.78024660330927 orient x 1 0 0 orient y 0 1 0 orient z 0 0 1
Lattice spacing in x,y,z = 5.78025 5.78025 5.78025
region       box block 0 7 0 7 0 7
create_box   1 box
Created orthogonal box = (0 0 0) to (40.4617 40.4617 40.4617)
create_atoms 1 box
Created 1372 atoms
mass         1 39.948
pair_style   lj/cut 13.0
pair_coeff   * * 0.2381 3.405
timestep     2
thermo       $d
thermo       2000

# equilibration and thermalization

velocity     all create $T 102486 mom yes rot yes dist gaussian
velocity     all create 94.4 102486 mom yes rot yes dist gaussian
fix          NVT all nvt temp $T $T 10 drag 0.2
fix          NVT all nvt temp 94.4 $T 10 drag 0.2
fix          NVT all nvt temp 94.4 94.4 10 drag 0.2
run          100000
  update every 1 steps, delay 10 steps, check yes
Step Temp E_pair E_mol TotEng Press
0         94.4    -2233.168            0   -1847.3844   -2523.3102
Averages over the last 26 of 51 rows, steps 50000 to 100000:
Temp E_pair E_mol TotEng Press
93.8644 -1869.04 0 -1485.45 149.936
Loop time of 113.453 on 6 procs for 100000 steps with 1372 atoms

# thermal conductivity calculation, switch to NVE if desired

unfix       NVT
fix         NVE all nve

reset_timestep 0
compute      KE all ke/atom
compute      PE all pe/atom
compute      pe_total all pe
compute      ke_total all ke
compute      Stress all stress/atom NULL virial
compute      flux_thermal all heat/flux KE PE Stress
variable     Jx equal c_flux_thermal[1]/vol
variable     Jy equal c_flux_thermal[2]/vol
variable     Jz equal c_flux_thermal[3]/vol
fix          JJ all ave/correlate $s $p $d              c_flux_thermal[1] c_flux_thermal[2] c_flux_thermal[3] type auto file J0Jt.dat ave running
fix          JJ all ave/correlate 10 $p $d              c_flux_thermal[1] c_flux_thermal[2] c_flux_thermal[3] type auto file J0Jt.dat ave running
fix          JJ all ave/correlate 10 200 $d              c_flux_thermal[1] c_flux_thermal[2] c_flux_thermal[3] type auto file J0Jt.dat ave running
fix          JJ all ave/correlate 10 200 2000              c_flux_thermal[1] c_flux_thermal[2] c_flux_thermal[3] type auto file J0Jt.dat ave running
fix print_data all print 1 "$(step) $(time) $(temp) $(c_pe_total) $(c_ke_total) $(c_flux_thermal[1]) $(c_flux_thermal[2]) $(c_flux_thermal[3]) " file flux_1_cepstral.lmp_flux screen no
variable     scale equal 4.83166430676946e-16/1.3806504e-23/94.4/94.4/66241.9672397342*10*2
variable     k11 equal trap(f_JJ[3])*1.18567541623127
variable     k22 equal trap(f_JJ[4])*1.18567541623127
variable     k33 equal trap(f_JJ[5])*1.18567541623127

# shell mkdir energy
# dump energy all custom 400 energy/energy_dump.* id type x y z vx vy vz c_myKE c_myPE
# dump the data required for G-K computations
dump position all custom 2 gk_data.lmp_traj id type x y z vx vy vz c_KE c_PE c_Stress[1] c_Stress[2] c_Stress[3] c_Stress[4] c_Stress[5] c_Stress[6]

thermo_style custom step temp v_Jx v_Jy v_Jz v_k11 v_k22 v_k33
# run          500000
run          20000
Step Temp v_Jx v_Jy v_Jz v_k11 v_k22 v_k33
0    91.497403 -1.5530364e-06 2.0323062e-07 -9.3022401e-07 0.0062743035 0.0001074436 0.0022510096
Averages over the last 6 of 11 rows, steps 10000 to 20000:
Temp v_Jx v_Jy v_Jz v_k11 v_k22 v_k33
90.1567 -3.98401e-08 -8.13724e-07 1.32085e-06 0.287703 0.0114822 0.2042
Loop time of 140.103 on 6 procs for 20000 steps with 1372 atoms

variable     k equal (v_k11+v_k22+v_k33)/3.0
variable     ndens equal count(all)/vol
print        "the volume of the box is: $V"
the volume of the box is: 66241.9672397342
average conductivity: 0.145398704083063[W/mK] @ 94.4 K, 0.0207119452692979 /A\^3
